<?xml version="1.0" encoding="UTF-8"?>

<!-- generated on 2025-03-17 21:02:22 by Eclipse SUMO netconvert Version 1.15.0
<configuration xmlns:xsi="http://www.w3.org/2001/XMLSchema-instance" xsi:noNamespaceSchemaLocation="http://sumo.dlr.de/xsd/netconvertConfiguration.xsd">

    <input>
        <opendrive-files value="Town06.xodr"/>
    </input>

    <output>
        <output-file value="Town06.net.xml"/>
    </output>

</configuration>
-->

<net version="1.9" junctionCornerDetail="5" rectangularLaneCut="true" limitTurnSpeed="5.50" xmlns:xsi="http://www.w3.org/2001/XMLSchema-instance" xsi:noNamespaceSchemaLocation="http://sumo.dlr.de/xsd/net_file.xsd">

    <location netOffset="358.49,404.45" convBoundary="0.00,0.00,1021.55,548.08" origBoundary="-368.99,-411.46,670.40,150.64" projParameter="!"/>

    <type id="bidirectional" priority="1" speed="1.39" disallow="pedestrian tram rail_urban rail rail_electric rail_fast ship" width="3.65"/>
    <type id="border" priority="0" speed="1.39" disallow="all" discard="1" width="0.10"/>
    <type id="driving" priority="1" speed="13.89" disallow="pedestrian tram rail_urban rail rail_electric rail_fast ship" width="3.65"/>
    <type id="entry" priority="1" speed="22.22" disallow="pedestrian tram rail_urban rail rail_electric rail_fast ship" width="3.65"/>
    <type id="exit" priority="1" speed="22.22" disallow="pedestrian tram rail_urban rail rail_electric rail_fast ship" width="3.65"/>
    <type id="median" priority="0" speed="1.39" disallow="all" discard="1" width="0.10"/>
    <type id="mwyEntry" priority="1" speed="22.22" allow="private emergency authority army vip passenger hov taxi bus coach delivery truck trailer motorcycle evehicle custom1 custom2" width="3.65"/>
    <type id="mwyExit" priority="1" speed="22.22" allow="private emergency authority army vip passenger hov taxi bus coach delivery truck trailer motorcycle evehicle custom1 custom2" width="3.65"/>
    <type id="none" priority="0" speed="1.39" disallow="all" discard="1" width="1.00"/>
    <type id="offRamp" priority="1" speed="22.22" allow="private emergency authority army vip passenger hov taxi bus coach delivery truck trailer motorcycle evehicle custom1 custom2" width="3.65"/>
    <type id="onRamp" priority="1" speed="22.22" allow="private emergency authority army vip passenger hov taxi bus coach delivery truck trailer motorcycle evehicle custom1 custom2" width="3.65"/>
    <type id="parking" priority="1" speed="1.39" disallow="pedestrian tram rail_urban rail rail_electric rail_fast ship" width="2.50"/>
    <type id="rail" priority="3" speed="33.33" allow="rail_urban rail rail_electric rail_fast" width="3.65"/>
    <type id="restricted" priority="0" speed="13.89" disallow="all" width="3.65"/>
    <type id="roadWorks" priority="0" speed="1.39" allow="authority" width="3.65"/>
    <type id="shoulder" priority="0" speed="1.39" disallow="all" discard="1" width="1.00"/>
    <type id="special1" priority="1" speed="22.22" allow="custom1" discard="1" width="3.65"/>
    <type id="special2" priority="1" speed="22.22" allow="custom2" discard="1" width="3.65"/>
    <type id="special3" priority="1" speed="22.22" allow="custom1 custom2" discard="1" width="3.65"/>
    <type id="stop" priority="1" speed="13.89" disallow="pedestrian tram rail_urban rail rail_electric rail_fast ship" width="3.65"/>
    <type id="tram" priority="2" speed="13.89" allow="tram" width="3.65"/>

    <edge id=":15#1_0" function="internal">
        <lane id=":15#1_0_0" index="0" disallow="pedestrian tram rail_urban rail rail_electric rail_fast ship" speed="13.89" length="3.78" width="3.50" shape="401.69,352.05 405.07,350.05"/>
        <lane id=":15#1_0_1" index="1" disallow="pedestrian tram rail_urban rail rail_electric rail_fast ship" speed="13.89" length="3.78" width="3.50" shape="401.13,355.50 404.49,353.50"/>
        <lane id=":15#1_0_2" index="2" disallow="pedestrian tram rail_urban rail rail_electric rail_fast ship" speed="13.89" length="3.78" width="3.50" shape="400.57,358.96 403.91,356.95"/>
        <lane id=":15#1_0_3" index="3" disallow="pedestrian tram rail_urban rail rail_electric rail_fast ship" speed="13.89" length="3.78" width="3.50" shape="400.01,362.41 403.33,360.40"/>
        <lane id=":15#1_0_4" index="4" allow="emergency authority" speed="13.89" length="3.78" width="4.18" shape="399.59,364.96 400.52,364.91 401.14,364.57 401.77,364.23 402.69,364.19"/>
    </edge>
    <edge id=":15.14_0" function="internal">
        <lane id=":15.14_0_0" index="0" disallow="pedestrian tram rail_urban rail rail_electric rail_fast ship" speed="13.89" length="8.48" width="3.50" shape="380.83,352.07 383.38,351.81 385.10,351.24 386.82,350.72 389.37,350.57"/>
        <lane id=":15.14_0_1" index="1" disallow="pedestrian tram rail_urban rail rail_electric rail_fast ship" speed="13.89" length="8.48" width="3.50" shape="380.82,355.57 383.33,355.31 385.01,354.74 386.69,354.21 389.20,354.07"/>
        <lane id=":15.14_0_2" index="2" disallow="pedestrian tram rail_urban rail rail_electric rail_fast ship" speed="13.89" length="8.48" width="3.50" shape="380.82,359.07 383.27,358.81 384.92,358.24 386.57,357.71 389.02,357.56"/>
        <lane id=":15.14_0_3" index="3" disallow="pedestrian tram rail_urban rail rail_electric rail_fast ship" speed="13.89" length="8.48" width="3.50" shape="380.82,362.57 383.22,362.31 384.83,361.74 386.44,361.21 388.84,361.06"/>
    </edge>
    <edge id=":17.16_0" function="internal">
        <lane id=":17.16_0_0" index="0" disallow="pedestrian tram rail_urban rail rail_electric rail_fast ship" speed="8.46" length="2.30" width="3.50" shape="494.09,352.17 495.01,351.78 495.74,351.83 496.51,352.05 497.59,352.18"/>
        <lane id=":17.16_0_1" index="1" disallow="pedestrian tram rail_urban rail rail_electric rail_fast ship" speed="6.23" length="2.30" width="3.50" shape="495.94,355.13 496.39,355.02 496.71,355.23 497.07,355.53 497.59,355.68"/>
        <lane id=":17.16_0_2" index="2" disallow="pedestrian tram rail_urban rail rail_electric rail_fast ship" speed="5.02" length="2.30" width="3.50" shape="497.80,358.10 497.58,359.18"/>
        <lane id=":17.16_0_3" index="3" disallow="pedestrian tram rail_urban rail rail_electric rail_fast ship" speed="7.30" length="2.30" width="3.50" shape="499.66,361.07 497.58,362.68"/>
    </edge>
    <edge id=":196_0" function="internal">
        <lane id=":196_0_0" index="0" disallow="pedestrian tram rail_urban rail rail_electric rail_fast ship" speed="13.89" length="27.09" width="3.50" shape="1031.09,347.70 1030.54,356.09 1029.88,361.82 1028.75,367.47 1026.78,375.65"/>
        <lane id=":196_0_1" index="1" disallow="pedestrian tram rail_urban rail rail_electric rail_fast ship" speed="13.89" length="27.09" width="3.50" shape="1027.60,347.50 1027.06,355.70 1026.42,361.30 1025.31,366.83 1023.38,374.83"/>
        <lane id=":196_0_2" index="2" disallow="pedestrian tram rail_urban rail rail_electric rail_fast ship" speed="13.89" length="27.09" width="3.50" shape="1024.10,347.30 1023.58,355.31 1022.95,360.78 1021.86,366.19 1019.98,374.00"/>
        <lane id=":196_0_3" index="3" disallow="pedestrian tram rail_urban rail rail_electric rail_fast ship" speed="13.89" length="27.09" width="3.50" shape="1020.61,347.10 1020.10,354.93 1019.48,360.27 1018.42,365.54 1016.58,373.17"/>
        <lane id=":196_0_4" index="4" disallow="pedestrian tram rail_urban rail rail_electric rail_fast ship" speed="13.89" length="27.09" width="3.50" shape="1017.11,346.90 1016.61,354.54 1016.01,359.75 1014.97,364.90 1013.18,372.35"/>
    </edge>
    <edge id=":196_5" function="internal">
        <lane id=":196_5_0" index="0" disallow="pedestrian tram rail_urban rail rail_electric rail_fast ship" speed="11.59" length="6.54" width="3.50" shape="1008.40,352.29 1014.89,353.16"/>
        <lane id=":196_5_1" index="1" disallow="pedestrian tram rail_urban rail rail_electric rail_fast ship" speed="10.46" length="6.24" width="3.50" shape="1008.40,355.79 1014.58,356.68"/>
        <lane id=":196_5_2" index="2" disallow="pedestrian tram rail_urban rail rail_electric rail_fast ship" speed="9.26" length="5.76" width="3.50" shape="1008.40,359.29 1014.10,360.11"/>
        <lane id=":196_5_3" index="3" disallow="pedestrian tram rail_urban rail rail_electric rail_fast ship" speed="7.87" length="5.12" width="3.50" shape="1008.40,362.79 1012.92,363.44 1013.38,363.75"/>
        <lane id=":196_5_4" index="4" disallow="pedestrian tram rail_urban rail rail_electric rail_fast ship" speed="6.18" length="4.52" width="3.50" shape="1008.40,366.29 1011.04,366.67 1012.57,367.71"/>
    </edge>
    <edge id=":196_10" function="internal">
        <lane id=":196_10_0" index="0" disallow="pedestrian tram rail_urban rail rail_electric rail_fast ship" speed="11.59" length="29.89" width="3.50" shape="1014.89,353.16 1018.79,353.69 1025.25,357.96 1027.88,365.23 1026.78,375.65"/>
    </edge>
    <edge id=":196_11" function="internal">
        <lane id=":196_11_0" index="0" disallow="pedestrian tram rail_urban rail rail_electric rail_fast ship" speed="10.46" length="23.20" width="3.50" shape="1014.58,356.68 1016.69,356.98 1021.95,360.55 1024.18,366.50 1023.38,374.83"/>
    </edge>
    <edge id=":196_12" function="internal">
        <lane id=":196_12_0" index="0" disallow="pedestrian tram rail_urban rail rail_electric rail_fast ship" speed="9.26" length="17.00" width="3.50" shape="1014.10,360.11 1014.81,360.21 1018.87,362.97 1020.60,367.57 1019.98,374.00"/>
    </edge>
    <edge id=":196_13" function="internal">
        <lane id=":196_13_0" index="0" disallow="pedestrian tram rail_urban rail rail_electric rail_fast ship" speed="7.87" length="10.95" width="3.50" shape="1013.38,363.75 1015.79,365.39 1017.01,368.63 1016.58,373.17"/>
    </edge>
    <edge id=":196_14" function="internal">
        <lane id=":196_14_0" index="0" disallow="pedestrian tram rail_urban rail rail_electric rail_fast ship" speed="6.18" length="4.86" width="3.50" shape="1012.57,367.71 1012.72,367.81 1013.43,369.70 1013.18,372.35"/>
    </edge>
    <edge id=":208_0" function="internal">
        <lane id=":208_0_0" index="0" disallow="pedestrian tram rail_urban rail rail_electric rail_fast ship" speed="13.89" length="16.74" width="3.50" shape="891.42,348.04 907.63,352.24"/>
    </edge>
    <edge id=":208_1" function="internal">
        <lane id=":208_1_0" index="0" disallow="pedestrian tram rail_urban rail rail_electric rail_fast ship" speed="13.89" length="17.35" width="3.50" shape="890.28,352.23 907.63,352.24"/>
        <lane id=":208_1_1" index="1" disallow="pedestrian tram rail_urban rail rail_electric rail_fast ship" speed="13.89" length="17.35" width="3.50" shape="890.28,355.73 907.63,355.74"/>
        <lane id=":208_1_2" index="2" disallow="pedestrian tram rail_urban rail rail_electric rail_fast ship" speed="13.89" length="17.35" width="3.50" shape="890.27,359.23 907.63,359.24"/>
        <lane id=":208_1_3" index="3" disallow="pedestrian tram rail_urban rail rail_electric rail_fast ship" speed="13.89" length="17.35" width="3.50" shape="890.27,362.73 907.63,362.74"/>
        <lane id=":208_1_4" index="4" disallow="pedestrian tram rail_urban rail rail_electric rail_fast ship" speed="13.89" length="17.35" width="3.50" shape="890.27,366.23 907.62,366.24"/>
    </edge>
    <edge id=":218_0" function="internal">
        <lane id=":218_0_0" index="0" disallow="pedestrian tram rail_urban rail rail_electric rail_fast ship" speed="13.89" length="25.45" width="3.50" shape="1030.40,245.94 1030.68,271.38"/>
        <lane id=":218_0_1" index="1" disallow="pedestrian tram rail_urban rail rail_electric rail_fast ship" speed="13.89" length="25.45" width="3.50" shape="1026.90,245.98 1027.18,271.42"/>
        <lane id=":218_0_2" index="2" disallow="pedestrian tram rail_urban rail rail_electric rail_fast ship" speed="13.89" length="25.45" width="3.50" shape="1023.40,246.01 1023.68,271.46"/>
        <lane id=":218_0_3" index="3" disallow="pedestrian tram rail_urban rail rail_electric rail_fast ship" speed="13.89" length="25.45" width="3.50" shape="1019.90,246.05 1020.18,271.50"/>
        <lane id=":218_0_4" index="4" disallow="pedestrian tram rail_urban rail rail_electric rail_fast ship" speed="13.89" length="25.45" width="3.50" shape="1016.40,246.09 1016.68,271.54"/>
    </edge>
    <edge id=":218_5" function="internal">
        <lane id=":218_5_0" index="0" disallow="pedestrian tram rail_urban rail rail_electric rail_fast ship" speed="11.79" length="3.89" width="3.50" shape="1010.73,251.85 1014.59,252.38"/>
        <lane id=":218_5_1" index="1" disallow="pedestrian tram rail_urban rail rail_electric rail_fast ship" speed="10.74" length="3.92" width="3.50" shape="1010.74,255.35 1014.63,255.88"/>
        <lane id=":218_5_2" index="2" disallow="pedestrian tram rail_urban rail rail_electric rail_fast ship" speed="9.57" length="3.94" width="3.50" shape="1010.76,258.85 1014.66,259.38"/>
        <lane id=":218_5_3" index="3" disallow="pedestrian tram rail_urban rail rail_electric rail_fast ship" speed="8.24" length="3.97" width="3.50" shape="1010.77,262.35 1014.70,262.89"/>
        <lane id=":218_5_4" index="4" disallow="pedestrian tram rail_urban rail rail_electric rail_fast ship" speed="6.65" length="4.18" width="3.50" shape="1010.79,265.85 1013.34,266.19 1014.72,267.00"/>
    </edge>
    <edge id=":218_10" function="internal">
        <lane id=":218_10_0" index="0" disallow="pedestrian tram rail_urban rail rail_electric rail_fast ship" speed="11.79" length="27.90" width="3.50" shape="1014.59,252.38 1019.38,253.04 1025.58,256.69 1029.35,262.81 1030.68,271.38"/>
    </edge>
    <edge id=":218_11" function="internal">
        <lane id=":218_11_0" index="0" disallow="pedestrian tram rail_urban rail rail_electric rail_fast ship" speed="10.74" length="22.26" width="3.50" shape="1014.63,255.88 1017.87,256.33 1022.98,259.33 1026.08,264.36 1027.18,271.42"/>
    </edge>
    <edge id=":218_12" function="internal">
        <lane id=":218_12_0" index="0" disallow="pedestrian tram rail_urban rail rail_electric rail_fast ship" speed="9.57" length="16.62" width="3.50" shape="1014.66,259.38 1016.36,259.62 1020.38,261.97 1022.82,265.92 1023.68,271.46"/>
    </edge>
    <edge id=":218_13" function="internal">
        <lane id=":218_13_0" index="0" disallow="pedestrian tram rail_urban rail rail_electric rail_fast ship" speed="8.24" length="10.97" width="3.50" shape="1014.70,262.89 1014.85,262.91 1017.78,264.62 1019.55,267.48 1020.18,271.50"/>
    </edge>
    <edge id=":218_14" function="internal">
        <lane id=":218_14_0" index="0" disallow="pedestrian tram rail_urban rail rail_electric rail_fast ship" speed="6.65" length="5.15" width="3.50" shape="1014.72,267.00 1015.17,267.26 1016.29,269.04 1016.68,271.54"/>
    </edge>
    <edge id=":22.21_0" function="internal">
        <lane id=":22.21_0_0" index="0" disallow="pedestrian tram rail_urban rail rail_electric rail_fast ship" speed="13.89" length="0.10" width="3.50" shape="140.95,269.32 140.95,269.32"/>
        <lane id=":22.21_0_1" index="1" disallow="pedestrian tram rail_urban rail rail_electric rail_fast ship" speed="13.89" length="0.10" width="3.50" shape="140.95,265.82 140.95,265.82"/>
        <lane id=":22.21_0_2" index="2" disallow="pedestrian tram rail_urban rail rail_electric rail_fast ship" speed="13.89" length="0.10" width="3.50" shape="140.94,262.32 140.94,262.32"/>
        <lane id=":22.21_0_3" index="3" disallow="pedestrian tram rail_urban rail rail_electric rail_fast ship" speed="13.89" length="0.10" width="3.50" shape="140.93,258.82 140.93,258.82"/>
    </edge>
    <edge id=":230_0" function="internal">
        <lane id=":230_0_0" index="0" disallow="pedestrian tram rail_urban rail rail_electric rail_fast ship" speed="13.89" length="6.33" width="3.50" shape="150.64,269.30 144.31,269.31"/>
        <lane id=":230_0_1" index="1" disallow="pedestrian tram rail_urban rail rail_electric rail_fast ship" speed="13.89" length="6.33" width="3.50" shape="150.64,265.80 144.30,265.81"/>
        <lane id=":230_0_2" index="2" disallow="pedestrian tram rail_urban rail rail_electric rail_fast ship" speed="13.89" length="6.33" width="3.50" shape="150.63,262.30 144.29,262.31"/>
        <lane id=":230_0_3" index="3" disallow="pedestrian tram rail_urban rail rail_electric rail_fast ship" speed="13.89" length="6.33" width="3.50" shape="150.62,258.80 144.29,258.81"/>
    </edge>
    <edge id=":230_4" function="internal">
        <lane id=":230_4_0" index="0" disallow="pedestrian tram rail_urban rail rail_electric rail_fast ship" speed="13.89" length="5.97" width="3.01" shape="150.61,255.30 148.84,255.27 147.64,255.15 146.44,254.94 144.70,254.60"/>
    </edge>
    <edge id=":241_0" function="internal">
        <lane id=":241_0_0" index="0" disallow="pedestrian tram rail_urban rail rail_electric rail_fast ship" speed="13.89" length="16.41" width="3.50" shape="229.25,426.92 212.84,426.86"/>
        <lane id=":241_0_1" index="1" disallow="pedestrian tram rail_urban rail rail_electric rail_fast ship" speed="13.89" length="16.41" width="3.50" shape="229.26,423.42 212.85,423.36"/>
        <lane id=":241_0_2" index="2" disallow="pedestrian tram rail_urban rail rail_electric rail_fast ship" speed="13.89" length="16.41" width="3.50" shape="229.28,419.92 212.86,419.86"/>
        <lane id=":241_0_3" index="3" disallow="pedestrian tram rail_urban rail rail_electric rail_fast ship" speed="13.89" length="16.41" width="3.50" shape="229.29,416.42 212.88,416.36"/>
    </edge>
    <edge id=":241_4" function="internal">
        <lane id=":241_4_0" index="0" disallow="pedestrian tram rail_urban rail rail_electric rail_fast ship" speed="13.15" length="17.10" width="3.50" shape="229.30,412.92 223.05,412.71 218.20,412.15 214.76,411.24 212.72,409.97"/>
        <lane id=":241_4_1" index="1" disallow="pedestrian tram rail_urban rail rail_electric rail_fast ship" speed="12.51" length="15.42" width="3.50" shape="229.30,412.92 225.00,412.57 221.23,411.57 218.00,409.91 215.29,407.59"/>
    </edge>
    <edge id=":25#1_0" function="internal">
        <lane id=":25#1_0_0" index="0" disallow="pedestrian tram rail_urban rail rail_electric rail_fast ship" speed="13.89" length="3.47" width="3.50" shape="311.06,269.03 310.09,269.21 309.50,269.75 308.90,270.28 307.93,270.46"/>
        <lane id=":25#1_0_1" index="1" disallow="pedestrian tram rail_urban rail rail_electric rail_fast ship" speed="13.89" length="3.47" width="3.50" shape="311.37,265.54 310.39,265.72 309.80,266.26 309.20,266.79 308.23,266.98"/>
        <lane id=":25#1_0_2" index="2" disallow="pedestrian tram rail_urban rail rail_electric rail_fast ship" speed="13.89" length="3.47" width="3.50" shape="311.67,262.05 310.69,262.24 310.10,262.77 309.51,263.31 308.53,263.49"/>
        <lane id=":25#1_0_3" index="3" allow="emergency authority" speed="13.89" length="3.47" width="3.50" shape="311.90,259.41 310.98,259.47 310.37,259.71 309.75,259.95 308.83,260.00"/>
    </edge>
    <edge id=":25.24_0" function="internal">
        <lane id=":25.24_0_0" index="0" disallow="pedestrian tram rail_urban rail rail_electric rail_fast ship" speed="13.89" length="2.73" width="3.50" shape="253.27,269.06 250.54,269.06"/>
        <lane id=":25.24_0_1" index="1" disallow="pedestrian tram rail_urban rail rail_electric rail_fast ship" speed="13.89" length="2.73" width="3.50" shape="253.26,265.56 250.53,265.56"/>
        <lane id=":25.24_0_2" index="2" disallow="pedestrian tram rail_urban rail rail_electric rail_fast ship" speed="13.89" length="2.73" width="3.50" shape="253.25,262.06 250.52,262.06"/>
        <lane id=":25.24_0_3" index="3" disallow="pedestrian tram rail_urban rail rail_electric rail_fast ship" speed="13.89" length="2.73" width="3.50" shape="253.25,258.56 250.51,258.56"/>
    </edge>
    <edge id=":26.25_0" function="internal">
        <lane id=":26.25_0_0" index="0" disallow="pedestrian tram rail_urban rail rail_electric rail_fast ship" speed="13.89" length="7.92" width="3.50" shape="334.07,268.87 331.67,269.15 330.05,269.73 328.44,270.25 326.05,270.33"/>
        <lane id=":26.25_0_1" index="1" disallow="pedestrian tram rail_urban rail rail_electric rail_fast ship" speed="13.89" length="7.92" width="3.50" shape="334.06,265.37 331.75,265.65 330.20,266.23 328.65,266.75 326.35,266.84"/>
        <lane id=":26.25_0_2" index="2" disallow="pedestrian tram rail_urban rail rail_electric rail_fast ship" speed="13.89" length="7.92" width="3.50" shape="334.05,261.87 331.83,262.15 330.35,262.74 328.86,263.26 326.65,263.35"/>
    </edge>
    <edge id=":262_0" function="internal">
        <lane id=":262_0_0" index="0" disallow="pedestrian tram rail_urban rail rail_electric rail_fast ship" speed="13.89" length="42.51" width="3.50" shape="236.27,154.04 278.77,154.18"/>
        <lane id=":262_0_1" index="1" disallow="pedestrian tram rail_urban rail rail_electric rail_fast ship" speed="13.89" length="42.51" width="3.50" shape="236.25,157.54 278.76,157.68"/>
        <lane id=":262_0_2" index="2" disallow="pedestrian tram rail_urban rail rail_electric rail_fast ship" speed="13.89" length="42.51" width="3.50" shape="236.24,161.04 278.75,161.18"/>
        <lane id=":262_0_3" index="3" disallow="pedestrian tram rail_urban rail rail_electric rail_fast ship" speed="13.89" length="42.51" width="3.50" shape="236.23,164.54 278.74,164.68"/>
    </edge>
    <edge id=":262_4" function="internal">
        <lane id=":262_4_0" index="0" disallow="pedestrian tram rail_urban rail rail_electric rail_fast ship" speed="13.89" length="39.48" width="3.50" shape="236.22,168.04 248.56,168.73 258.86,170.74 267.11,174.04 273.32,178.65"/>
    </edge>
    <edge id=":273_0" function="internal">
        <lane id=":273_0_0" index="0" disallow="pedestrian tram rail_urban rail rail_electric rail_fast ship" speed="13.89" length="26.60" width="3.50" shape="425.62,254.25 452.22,254.14"/>
        <lane id=":273_0_1" index="1" disallow="pedestrian tram rail_urban rail rail_electric rail_fast ship" speed="13.89" length="26.60" width="3.50" shape="425.63,257.75 452.24,257.64"/>
        <lane id=":273_0_2" index="2" disallow="pedestrian tram rail_urban rail rail_electric rail_fast ship" speed="13.89" length="26.60" width="3.50" shape="425.65,261.25 452.25,261.14"/>
        <lane id=":273_0_3" index="3" disallow="pedestrian tram rail_urban rail rail_electric rail_fast ship" speed="13.89" length="26.60" width="3.50" shape="425.66,264.75 452.27,264.64"/>
        <lane id=":273_0_4" index="4" disallow="pedestrian tram rail_urban rail rail_electric rail_fast ship" speed="13.89" length="26.60" width="3.50" shape="425.68,268.25 452.28,268.14"/>
    </edge>
    <edge id=":273_5" function="internal">
        <lane id=":273_5_0" index="0" disallow="pedestrian tram rail_urban rail rail_electric rail_fast ship" speed="13.89" length="26.55" width="3.50" shape="425.68,268.25 434.65,268.73 441.86,269.94 447.50,271.38 451.77,272.57"/>
    </edge>
    <edge id=":28.17_0" function="internal">
        <lane id=":28.17_0_0" index="0" disallow="pedestrian tram rail_urban rail rail_electric rail_fast ship" speed="13.89" length="0.30" width="3.50" shape="558.41,352.24 558.70,352.24"/>
        <lane id=":28.17_0_1" index="1" disallow="pedestrian tram rail_urban rail rail_electric rail_fast ship" speed="13.89" length="0.30" width="3.50" shape="558.41,355.74 558.70,355.74"/>
        <lane id=":28.17_0_2" index="2" disallow="pedestrian tram rail_urban rail rail_electric rail_fast ship" speed="13.89" length="0.30" width="3.50" shape="558.40,359.24 558.71,359.24"/>
        <lane id=":28.17_0_3" index="3" disallow="pedestrian tram rail_urban rail rail_electric rail_fast ship" speed="13.89" length="0.30" width="3.50" shape="558.40,362.74 558.71,362.74"/>
    </edge>
    <edge id=":281_0" function="internal">
        <lane id=":281_0_0" index="0" disallow="pedestrian tram rail_urban rail rail_electric rail_fast ship" speed="9.05" length="18.22" width="3.50" shape="346.19,439.43 345.51,434.14 343.53,430.35 340.26,428.08 335.69,427.30"/>
    </edge>
    <edge id=":281_1" function="internal">
        <lane id=":281_1_0" index="0" disallow="pedestrian tram rail_urban rail rail_electric rail_fast ship" speed="13.89" length="31.69" width="3.50" shape="349.69,439.40 349.48,407.71"/>
        <lane id=":281_1_1" index="1" disallow="pedestrian tram rail_urban rail rail_electric rail_fast ship" speed="13.89" length="31.69" width="3.50" shape="353.19,439.38 352.98,407.69"/>
    </edge>
    <edge id=":281_3" function="internal">
        <lane id=":281_3_0" index="0" disallow="pedestrian tram rail_urban rail rail_electric rail_fast ship" speed="9.83" length="22.04" width="3.50" shape="383.57,427.48 376.81,428.19 372.00,430.40 369.12,434.10 368.19,439.28"/>
    </edge>
    <edge id=":281_4" function="internal">
        <lane id=":281_4_0" index="0" disallow="pedestrian tram rail_urban rail rail_electric rail_fast ship" speed="13.89" length="47.88" width="3.50" shape="383.58,423.98 335.71,423.80"/>
        <lane id=":281_4_1" index="1" disallow="pedestrian tram rail_urban rail rail_electric rail_fast ship" speed="13.89" length="47.88" width="3.50" shape="383.60,420.48 335.72,420.30"/>
        <lane id=":281_4_2" index="2" disallow="pedestrian tram rail_urban rail rail_electric rail_fast ship" speed="13.89" length="47.88" width="3.50" shape="383.61,416.98 335.73,416.80"/>
    </edge>
    <edge id=":281_7" function="internal">
        <lane id=":281_7_0" index="0" disallow="pedestrian tram rail_urban rail rail_electric rail_fast ship" speed="13.89" length="31.69" width="3.50" shape="364.48,407.61 364.69,439.30"/>
        <lane id=":281_7_1" index="1" disallow="pedestrian tram rail_urban rail rail_electric rail_fast ship" speed="13.89" length="31.69" width="3.50" shape="360.98,407.64 361.19,439.33"/>
    </edge>
    <edge id=":3.27_0" function="internal">
        <lane id=":3.27_0_0" index="0" disallow="pedestrian tram rail_urban rail rail_electric rail_fast ship" speed="13.89" length="0.10" width="3.50" shape="869.40,315.00 869.40,315.00"/>
    </edge>
    <edge id=":31.28_0" function="internal">
        <lane id=":31.28_0_0" index="0" disallow="pedestrian tram rail_urban rail rail_electric rail_fast ship" speed="13.89" length="0.10" width="3.50" shape="577.30,352.08 577.30,352.08"/>
        <lane id=":31.28_0_1" index="1" disallow="pedestrian tram rail_urban rail rail_electric rail_fast ship" speed="13.89" length="0.10" width="3.50" shape="577.30,355.58 577.30,355.58"/>
        <lane id=":31.28_0_2" index="2" disallow="pedestrian tram rail_urban rail rail_electric rail_fast ship" speed="13.89" length="0.10" width="3.50" shape="577.30,359.08 577.30,359.08"/>
        <lane id=":31.28_0_3" index="3" disallow="pedestrian tram rail_urban rail rail_electric rail_fast ship" speed="13.89" length="0.10" width="3.50" shape="577.29,362.58 577.29,362.58"/>
    </edge>
    <edge id=":33#1_0" function="internal">
        <lane id=":33#1_0_0" index="0" disallow="pedestrian tram rail_urban rail rail_electric rail_fast ship" speed="13.89" length="3.50" width="3.50" shape="664.72,352.04 665.70,351.88 666.30,351.36 666.91,350.84 667.89,350.68"/>
        <lane id=":33#1_0_1" index="1" disallow="pedestrian tram rail_urban rail rail_electric rail_fast ship" speed="13.89" length="3.50" width="3.50" shape="664.33,355.52 665.31,355.36 665.91,354.84 666.52,354.32 667.50,354.16"/>
        <lane id=":33#1_0_2" index="2" disallow="pedestrian tram rail_urban rail rail_electric rail_fast ship" speed="13.89" length="3.50" width="3.50" shape="663.94,359.00 664.91,358.84 665.52,358.32 666.13,357.80 667.11,357.64"/>
        <lane id=":33#1_0_3" index="3" disallow="pedestrian tram rail_urban rail rail_electric rail_fast ship" speed="13.89" length="3.50" width="3.50" shape="663.55,362.48 664.52,362.32 665.13,361.80 665.74,361.27 666.72,361.11"/>
        <lane id=":33#1_0_4" index="4" allow="emergency authority" speed="13.89" length="3.50" width="3.50" shape="663.25,365.11 664.17,365.08 664.79,364.85 665.41,364.62 666.33,364.59"/>
    </edge>
    <edge id=":33.32_0" function="internal">
        <lane id=":33.32_0_0" index="0" disallow="pedestrian tram rail_urban rail rail_electric rail_fast ship" speed="13.89" length="8.41" width="3.50" shape="636.89,352.11 639.38,351.83 641.04,351.21 642.71,350.62 645.20,350.40"/>
        <lane id=":33.32_0_1" index="1" disallow="pedestrian tram rail_urban rail rail_electric rail_fast ship" speed="13.89" length="8.41" width="3.50" shape="636.89,355.61 639.35,355.33 641.00,354.71 642.64,354.12 645.10,353.90"/>
        <lane id=":33.32_0_2" index="2" disallow="pedestrian tram rail_urban rail rail_electric rail_fast ship" speed="13.89" length="8.41" width="3.50" shape="636.89,359.11 639.32,358.83 640.95,358.21 642.57,357.62 645.01,357.40"/>
        <lane id=":33.32_0_3" index="3" disallow="pedestrian tram rail_urban rail rail_electric rail_fast ship" speed="13.89" length="8.41" width="3.50" shape="636.89,362.61 639.29,362.32 640.90,361.69 642.50,361.09 644.91,360.89"/>
    </edge>
    <edge id=":360_0" function="internal">
        <lane id=":360_0_0" index="0" disallow="pedestrian tram rail_urban rail rail_electric rail_fast ship" speed="13.89" length="1.99" width="3.50" shape="346.63,504.97 346.62,502.99"/>
        <lane id=":360_0_1" index="1" disallow="pedestrian tram rail_urban rail rail_electric rail_fast ship" speed="13.89" length="1.99" width="3.50" shape="350.13,504.95 350.12,502.96"/>
        <lane id=":360_0_2" index="2" disallow="pedestrian tram rail_urban rail rail_electric rail_fast ship" speed="13.89" length="1.99" width="3.50" shape="353.63,504.94 353.62,502.94"/>
    </edge>
    <edge id=":360_3" function="internal">
        <lane id=":360_3_0" index="0" disallow="pedestrian tram rail_urban rail rail_electric rail_fast ship" speed="13.89" length="1.98" width="3.50" shape="368.62,502.84 368.63,504.82"/>