<?xml version="1.0" encoding="UTF-8"?>

<!-- generated on 2025-04-08 15:12:30 by Eclipse SUMO netconvert Version 1.22.0
<netconvertConfiguration xmlns:xsi="http://www.w3.org/2001/XMLSchema-instance" xsi:noNamespaceSchemaLocation="http://sumo.dlr.de/xsd/netconvertConfiguration.xsd">

    <input>
        <type-files value="${SUMO_HOME}/data/typemap/osmNetconvert.typ.xml"/>
        <osm-files value="osm_bbox.osm.xml.gz"/>
    </input>

    <output>
        <output-file value="osm.net.xml.gz"/>
        <output.street-names value="true"/>
        <output.original-names value="true"/>
    </output>

    <projection>
        <proj.utm value="true"/>
    </projection>

    <processing>
        <geometry.remove value="true"/>
        <roundabouts.guess value="true"/>
    </processing>

    <tls_building>
        <tls.discard-simple value="true"/>
        <tls.join value="true"/>
        <tls.guess-signals value="true"/>
        <tls.default-type value="actuated"/>
    </tls_building>

    <ramp_guessing>
        <ramps.guess value="true"/>
    </ramp_guessing>

    <junctions>
        <junctions.join value="true"/>
        <junctions.corner-detail value="5"/>
    </junctions>

</netconvertConfiguration>
-->

<net version="1.20" junctionCornerDetail="5" limitTurnSpeed="5.50" xmlns:xsi="http://www.w3.org/2001/XMLSchema-instance" xsi:noNamespaceSchemaLocation="http://sumo.dlr.de/xsd/net_file.xsd">

    <location netOffset="-583065.34,-4094555.67" convBoundary="0.00,0.00,1835.67,1044.83" origBoundary="-122.066428,36.993458,-122.045838,37.002779" projParameter="+proj=utm +zone=10 +ellps=WGS84 +datum=WGS84 +units=m +no_defs"/>

    <type id="highway.footway" priority="1" numLanes="1" speed="2.78" allow="pedestrian" oneway="1" width="2.00"/>
    <type id="highway.living_street" priority="2" numLanes="1" speed="2.78" disallow="tram rail_urban rail rail_electric rail_fast ship container cable_car subway aircraft wheelchair scooter drone" oneway="0"/>
    <type id="highway.path" priority="1" numLanes="1" speed="5.56" allow="pedestrian bicycle" oneway="0" width="2.00"/>
    <type id="highway.pedestrian" priority="1" numLanes="1" speed="2.78" allow="pedestrian" oneway="1" width="2.00"/>
    <type id="highway.residential" priority="3" numLanes="1" speed="13.89" disallow="tram rail_urban rail rail_electric rail_fast ship container cable_car subway aircraft wheelchair scooter drone" oneway="0"/>
    <type id="highway.secondary" priority="11" numLanes="1" speed="27.78" disallow="tram rail_urban rail rail_electric rail_fast ship container cable_car subway aircraft wheelchair scooter drone" oneway="0"/>
    <type id="highway.service" priority="1" numLanes="1" speed="5.56" allow="pedestrian delivery bicycle" oneway="0"/>
    <type id="highway.steps" priority="1" numLanes="1" speed="1.39" allow="pedestrian" oneway="1" width="2.00"/>
    <type id="highway.tertiary" priority="10" numLanes="1" speed="22.22" disallow="tram rail_urban rail rail_electric rail_fast ship container cable_car subway aircraft wheelchair scooter drone" oneway="0"/>
    <type id="highway.track" priority="1" numLanes="1" speed="5.56" allow="pedestrian motorcycle moped bicycle" oneway="0"/>

    <edge id=":11054157070_0" function="internal">
        <lane id=":11054157070_0_0" index="0" allow="pedestrian bicycle" speed="5.56" length="7.54" width="2.00" shape="175.48,290.65 175.40,298.19"/>
    </edge>
    <edge id=":11054157070_1" function="internal">
        <lane id=":11054157070_1_0" index="0" allow="pedestrian bicycle" speed="5.56" length="7.97" width="2.00" shape="175.48,290.65 175.07,292.78 174.02,293.96 172.52,294.99 170.78,296.63"/>
    </edge>
    <edge id=":11054157070_2" function="internal">
        <lane id=":11054157070_2_0" index="0" allow="pedestrian bicycle" speed="2.89" length="2.92" width="2.00" shape="175.48,290.65 174.98,291.40 174.47,291.64 173.98,291.39 173.48,290.64"/>
    </edge>
    <edge id=":11054157070_3" function="internal">
        <lane id=":11054157070_3_0" index="0" allow="pedestrian bicycle" speed="5.56" length="5.53" width="2.00" shape="169.75,294.72 173.48,290.64"/>
    </edge>
    <edge id=":11054157070_4" function="internal">
        <lane id=":11054157070_4_0" index="0" allow="pedestrian bicycle" speed="5.56" length="11.74" width="2.00" shape="169.75,294.72 172.27,292.27 174.06,292.03 175.10,294.01 175.40,298.19"/>
    </edge>
    <edge id=":11054157070_5" function="internal">
        <lane id=":11054157070_5_0" index="0" allow="pedestrian bicycle" speed="2.97" length="3.17" width="2.00" shape="169.75,294.72 170.72,294.82 171.22,295.17 171.24,295.77 170.78,296.63"/>
    </edge>
    <edge id=":11054157070_6" function="internal">
        <lane id=":11054157070_6_0" index="0" allow="pedestrian bicycle" speed="4.03" length="5.41" width="2.00" shape="173.40,298.17 173.26,296.26 172.78,295.36 171.95,295.49 170.78,296.63"/>
    </edge>
    <edge id=":11054157070_7" function="internal">
        <lane id=":11054157070_7_0" index="0" allow="pedestrian bicycle" speed="5.56" length="7.53" width="2.00" shape="173.40,298.17 173.48,290.64"/>
    </edge>
    <edge id=":11054157070_8" function="internal">
        <lane id=":11054157070_8_0" index="0" allow="pedestrian bicycle" speed="2.89" length="2.92" width="2.00" shape="173.40,298.17 173.91,297.43 174.42,297.18 174.91,297.44 175.40,298.19"/>
    </edge>
    <edge id=":11331822889_0" function="internal">
        <lane id=":11331822889_0_0" index="0" allow="pedestrian delivery bicycle" speed="5.56" length="5.54" shape="208.97,130.58 208.36,132.11 207.92,133.16 207.33,134.12 206.28,135.38"/>
    </edge>
    <edge id=":11331822889_1" function="internal">
        <lane id=":11331822889_1_0" index="0" allow="pedestrian delivery bicycle" speed="3.71" length="4.91" shape="208.97,130.58 207.51,131.00 206.59,130.78 206.22,129.92 206.40,128.41"/>
    </edge>
    <edge id=":11331822889_2" function="internal">
        <lane id=":11331822889_2_0" index="0" allow="pedestrian delivery bicycle" speed="5.56" length="5.50" shape="203.89,133.25 204.90,131.99 205.44,131.01 205.82,129.94 206.40,128.41"/>
    </edge>
    <edge id=":11331822889_3" function="internal">
        <lane id=":11331822889_3_0" index="0" allow="pedestrian delivery bicycle" speed="3.65" length="4.67" shape="203.89,133.25 205.29,132.88 206.15,133.12 206.48,133.95 206.28,135.38"/>
    </edge>
    <edge id=":11888234578_0" function="internal">
        <lane id=":11888234578_0_0" index="0" allow="pedestrian bicycle" speed="5.56" length="8.96" width="2.00" shape="926.93,637.33 924.26,637.33 922.39,637.39 920.64,637.85 918.31,639.04"/>
    </edge>
    <edge id=":11888234578_1" function="internal">
        <lane id=":11888234578_1_0" index="0" allow="pedestrian bicycle" speed="5.56" length="10.89" width="2.00" shape="926.93,637.33 923.86,637.15 921.64,636.52 919.44,635.60 916.49,634.57"/>
    </edge>
    <edge id=":11888234578_2" function="internal">
        <lane id=":11888234578_2_0" index="0" allow="pedestrian bicycle" speed="5.56" length="11.61" width="2.00" shape="926.93,637.33 923.35,637.03 921.93,635.87 922.64,633.86 925.50,630.99"/>
    </edge>
    <edge id=":11888234578_3" function="internal">
        <lane id=":11888234578_3_0" index="0" allow="pedestrian bicycle" speed="2.93" length="3.06" width="2.00" shape="926.93,637.33 926.31,636.62 926.20,636.04 926.59,635.61 927.49,635.31"/>
    </edge>
    <edge id=":11888234578_4" function="internal">
        <lane id=":11888234578_4_0" index="0" allow="pedestrian bicycle" speed="3.95" length="5.16" width="2.00" shape="926.79,632.52 925.53,633.79 925.23,634.67 925.88,635.18 927.49,635.31"/>
    </edge>
    <edge id=":11888234578_5" function="internal">
        <lane id=":11888234578_5_0" index="0" allow="pedestrian bicycle" speed="5.56" length="10.71" width="2.00" shape="926.79,632.52 924.45,634.54 922.73,636.03 920.92,637.40 918.31,639.04"/>
    </edge>
    <edge id=":11888234578_6" function="internal">
        <lane id=":11888234578_6_0" index="0" allow="pedestrian bicycle" speed="5.56" length="10.95" width="2.00" shape="926.79,632.52 924.48,634.05 921.99,634.90 919.33,635.07 916.49,634.57"/>
    </edge>
    <edge id=":11888234578_7" function="internal">
        <lane id=":11888234578_7_0" index="0" allow="pedestrian bicycle" speed="2.89" length="2.92" width="2.00" shape="926.79,632.52 925.89,632.62 925.38,632.40 925.25,631.85 925.50,630.99"/>
    </edge>
    <edge id=":11888234578_8" function="internal">
        <lane id=":11888234578_8_0" index="0" allow="pedestrian bicycle" speed="5.56" length="8.99" width="2.00" shape="917.04,632.65 919.38,633.06 921.57,632.93 923.61,632.23 925.50,630.99"/>
    </edge>
    <edge id=":11888234578_9" function="internal">
        <lane id=":11888234578_9_0" index="0" allow="pedestrian bicycle" speed="5.56" length="10.87" width="2.00" shape="917.04,632.65 920.00,633.66 922.19,634.55 924.42,635.15 927.49,635.31"/>
    </edge>
    <edge id=":11888234578_10" function="internal">
        <lane id=":11888234578_10_0" index="0" allow="pedestrian bicycle" speed="5.49" length="10.30" width="2.00" shape="917.04,632.65 920.17,633.92 921.43,635.41 920.81,637.12 918.31,639.04"/>
    </edge>
    <edge id=":11888234578_11" function="internal">
        <lane id=":11888234578_11_0" index="0" allow="pedestrian bicycle" speed="2.89" length="2.92" width="2.00" shape="917.04,632.65 917.62,633.34 917.72,633.89 917.35,634.30 916.49,634.57"/>
    </edge>
    <edge id=":11888234578_12" function="internal">
        <lane id=":11888234578_12_0" index="0" allow="pedestrian bicycle" speed="3.90" length="4.68" width="2.00" shape="917.01,637.49 918.16,636.61 918.46,635.83 917.90,635.15 916.49,634.57"/>
    </edge>
    <edge id=":11888234578_13" function="internal">
        <lane id=":11888234578_13_0" index="0" allow="pedestrian bicycle" speed="5.56" length="10.71" width="2.00" shape="917.01,637.49 919.62,635.85 921.43,634.49 923.16,633.00 925.50,630.99"/>
    </edge>
    <edge id=":11888234578_14" function="internal">
        <lane id=":11888234578_14_0" index="0" allow="pedestrian bicycle" speed="5.56" length="10.89" width="2.00" shape="917.01,637.49 919.76,636.09 921.99,635.50 924.35,635.35 927.49,635.31"/>
    </edge>
    <edge id=":11888234578_15" function="internal">
        <lane id=":11888234578_15_0" index="0" allow="pedestrian bicycle" speed="2.90" length="2.96" width="2.00" shape="917.01,637.49 917.92,637.39 918.44,637.61 918.57,638.16 918.31,639.04"/>
    </edge>
    <edge id=":1290568693_0" function="internal">
        <lane id=":1290568693_0_0" index="0" allow="pedestrian delivery bicycle" speed="5.56" length="9.48" shape="684.62,973.65 681.98,972.73 680.10,972.33 678.16,972.18 675.35,971.99"/>
    </edge>
    <edge id=":1290568693_1" function="internal">
        <lane id=":1290568693_1_0" index="0" allow="pedestrian delivery bicycle" speed="3.68" length="1.61" shape="684.62,973.65 683.51,972.67 683.47,972.54"/>
    </edge>
    <edge id=":1290568693_4" function="internal">
        <lane id=":1290568693_4_0" index="0" allow="pedestrian delivery bicycle" speed="3.68" length="3.19" shape="683.47,972.54 683.22,971.79 683.74,971.04 685.07,970.39"/>
    </edge>
    <edge id=":1290568693_2" function="internal">
        <lane id=":1290568693_2_0" index="0" allow="pedestrian delivery bicycle" speed="5.56" length="9.65" shape="675.62,968.81 678.48,968.98 680.46,969.10 682.38,969.47 685.07,970.39"/>
    </edge>
    <edge id=":1290568693_3" function="internal">
        <lane id=":1290568693_3_0" index="0" allow="pedestrian delivery bicycle" speed="3.65" length="1.44" shape="675.62,968.81 676.75,969.71"/>
    </edge>
    <edge id=":1290568693_5" function="internal">
        <lane id=":1290568693_5_0" index="0" allow="pedestrian delivery bicycle" speed="3.65" length="3.23" shape="676.75,969.71 677.08,970.54 676.61,971.30 675.35,971.99"/>
    </edge>
    <edge id=":1290568697_0" function="internal">
        <lane id=":1290568697_0_0" index="0" allow="pedestrian delivery bicycle" speed="5.56" length="5.32" shape="655.35,857.07 654.90,858.32 654.84,859.57 655.18,860.82 655.92,862.06"/>
    </edge>
    <edge id=":1290568697_1" function="internal">
        <lane id=":1290568697_1_0" index="0" allow="pedestrian delivery bicycle" speed="5.56" length="6.03" shape="655.35,857.07 654.49,858.62 653.76,859.60 652.88,860.47 651.55,861.67"/>
    </edge>
    <edge id=":1290568697_2" function="internal">
        <lane id=":1290568697_2_0" index="0" allow="pedestrian delivery bicycle" speed="3.65" length="4.67" shape="655.35,857.07 654.09,857.77 653.19,857.76 652.67,857.03 652.51,855.60"/>
    </edge>
    <edge id=":1290568697_3" function="internal">
        <lane id=":1290568697_3_0" index="0" allow="pedestrian delivery bicycle" speed="5.56" length="4.91" shape="649.38,859.32 650.46,858.35 651.19,857.65 651.80,856.86 652.51,855.60"/>
    </edge>
    <edge id=":1290568697_4" function="internal">
        <lane id=":1290568697_4_0" index="0" allow="pedestrian delivery bicycle" speed="5.56" length="8.05" shape="649.38,859.32 650.78,858.58 652.33,858.79 654.05,859.95 655.92,862.06"/>
    </edge>
    <edge id=":1290568697_5" function="internal">
        <lane id=":1290568697_5_0" index="0" allow="pedestrian delivery bicycle" speed="3.65" length="4.67" shape="649.38,859.32 650.80,859.10 651.64,859.41 651.89,860.27 651.55,861.67"/>
    </edge>
    <edge id=":1290568709_0" function="internal">
        <lane id=":1290568709_0_0" index="0" allow="pedestrian delivery bicycle" speed="3.65" length="4.67" shape="729.68,1027.09 729.75,1025.65 730.23,1024.90 731.12,1024.83 732.42,1025.45"/>
    </edge>
    <edge id=":1290568713_0" function="internal">
        <lane id=":1290568713_0_0" index="0" allow="pedestrian delivery bicycle" speed="3.65" length="4.67" shape="700.39,1036.65 699.50,1037.78 698.67,1038.11 697.90,1037.64 697.21,1036.38"/>
    </edge>
    <edge id=":1290568746_0" function="internal">
        <lane id=":1290568746_0_0" index="0" allow="pedestrian delivery bicycle" speed="3.65" length="4.67" shape="661.03,1000.58 662.37,1000.05 663.26,1000.18 663.68,1000.97 663.65,1002.41"/>
    </edge>
    <edge id=":1290568750_0" function="internal">
        <lane id=":1290568750_0_0" index="0" allow="pedestrian delivery bicycle" speed="5.56" length="9.26" shape="704.75,1015.58 702.29,1024.50"/>
    </edge>
    <edge id=":1290568750_1" function="internal">
        <lane id=":1290568750_1_0" index="0" allow="pedestrian delivery bicycle" speed="5.56" length="10.23" shape="704.75,1015.58 703.66,1017.66 701.91,1019.14 699.53,1020.02 696.49,1020.30"/>
    </edge>
    <edge id=":1290568750_2" function="internal">
        <lane id=":1290568750_2_0" index="0" allow="pedestrian delivery bicycle" speed="3.65" length="4.67" shape="704.75,1015.58 703.62,1016.47 702.74,1016.61 702.10,1015.98 701.71,1014.59"/>
    </edge>
    <edge id=":1290568750_3" function="internal">
        <lane id=":1290568750_3_0" index="0" allow="pedestrian delivery bicycle" speed="5.56" length="6.18" shape="696.51,1017.10 698.48,1016.96 700.00,1016.49 701.08,1015.70 701.71,1014.59"/>
    </edge>
    <edge id=":1290568750_4" function="internal">
        <lane id=":1290568750_4_0" index="0" allow="pedestrian delivery bicycle" speed="5.56" length="11.39" shape="696.51,1017.10 699.71,1017.58 701.74,1018.98 702.60,1021.28 702.29,1024.50"/>
    </edge>
    <edge id=":1290568750_5" function="internal">
        <lane id=":1290568750_5_0" index="0" allow="pedestrian delivery bicycle" speed="3.65" length="4.67" shape="696.51,1017.10 697.71,1017.91 698.10,1018.71 697.70,1019.51 696.49,1020.30"/>
    </edge>
    <edge id=":1290568750_6" function="internal">
        <lane id=":1290568750_6_0" index="0" allow="pedestrian delivery bicycle" speed="4.83" length="5.30" shape="699.18,1023.75 699.33,1022.25 698.93,1021.18 697.98,1020.53 696.49,1020.30"/>
    </edge>
    <edge id=":1290568750_7" function="internal">
        <lane id=":1290568750_7_0" index="0" allow="pedestrian delivery bicycle" speed="5.56" length="9.50" shape="699.18,1023.75 701.71,1014.59"/>
    </edge>
    <edge id=":1290568750_8" function="internal">
        <lane id=":1290568750_8_0" index="0" allow="pedestrian delivery bicycle" speed="3.65" length="4.67" shape="699.18,1023.75 700.24,1022.77 701.11,1022.57 701.80,1023.15 702.29,1024.50"/>
    </edge>
    <edge id=":1290568764_0" function="internal">
        <lane id=":1290568764_0_0" index="0" allow="pedestrian delivery bicycle" speed="5.56" length="5.58" shape="618.14,944.67 617.08,944.03 615.86,943.82 614.46,944.02 612.89,944.65"/>
    </edge>
    <edge id=":1290568764_1" function="internal">
        <lane id=":1290568764_1_0" index="0" allow="pedestrian delivery bicycle" speed="5.56" length="8.98" shape="618.14,944.67 616.18,942.88 614.98,941.51 614.01,939.95 612.73,937.61"/>
    </edge>
    <edge id=":1290568764_2" function="internal">
        <lane id=":1290568764_2_0" index="0" allow="pedestrian delivery bicycle" speed="3.65" length="4.67" shape="618.14,944.67 617.77,943.28 617.99,942.41 618.82,942.07 620.25,942.26"/>
    </edge>
    <edge id=":1290568764_3" function="internal">
        <lane id=":1290568764_3_0" index="0" allow="pedestrian delivery bicycle" speed="5.56" length="7.85" shape="615.54,936.08 616.65,938.12 617.50,939.49 618.54,940.70 620.25,942.26"/>
    </edge>
    <edge id=":1290568764_4" function="internal">
        <lane id=":1290568764_4_0" index="0" allow="pedestrian delivery bicycle" speed="5.56" length="10.30" shape="615.54,936.08 616.53,938.73 616.42,941.05 615.21,943.02 612.89,944.65"/>
    </edge>
    <edge id=":1290568764_5" function="internal">
        <lane id=":1290568764_5_0" index="0" allow="pedestrian delivery bicycle" speed="3.65" length="4.67" shape="615.54,936.08 615.41,937.51 614.90,938.25 614.01,938.28 612.73,937.61"/>
    </edge>
    <edge id=":1290568764_6" function="internal">
        <lane id=":1290568764_6_0" index="0" allow="pedestrian delivery bicycle" speed="5.01" length="5.03" shape="611.44,941.80 612.57,941.01 613.16,940.04 613.22,938.91 612.73,937.61"/>
    </edge>
    <edge id=":1290568764_7" function="internal">
        <lane id=":1290568764_7_0" index="0" allow="pedestrian delivery bicycle" speed="5.56" length="9.41" shape="611.44,941.80 613.95,940.83 616.26,940.58 618.36,941.06 620.25,942.26"/>
    </edge>
    <edge id=":1290568764_8" function="internal">
        <lane id=":1290568764_8_0" index="0" allow="pedestrian delivery bicycle" speed="3.65" length="4.67" shape="611.44,941.80 612.87,941.97 613.59,942.50 613.60,943.40 612.89,944.65"/>
    </edge>
    <edge id=":1363148213_0" function="internal">
        <lane id=":1363148213_0_0" index="0" allow="pedestrian bicycle" speed="5.56" length="7.70" width="2.00" shape="585.58,389.47 584.69,390.11 583.76,391.41 582.80,393.38 581.79,396.01"/>
    </edge>
    <edge id=":1363148213_1" function="internal">
        <lane id=":1363148213_1_0" index="0" allow="pedestrian bus bicycle" speed="5.56" length="8.52" shape="585.58,389.47 577.57,392.38"/>
    </edge>
    <edge id=":1363148213_2" function="internal">
        <lane id=":1363148213_2_0" index="0" allow="pedestrian bus bicycle" speed="3.65" length="4.67" shape="585.58,389.47 584.19,389.12 583.54,388.49 583.66,387.61 584.52,386.45"/>
    </edge>
    <edge id=":1363148213_3" function="internal">
        <lane id=":1363148213_3_0" index="0" allow="pedestrian bus bicycle" speed="5.56" length="8.56" shape="576.48,389.37 584.52,386.45"/>
    </edge>
    <edge id=":1363148213_4" function="internal">
        <lane id=":1363148213_4_0" index="0" allow="pedestrian bicycle" speed="5.56" length="12.67" width="2.00" shape="576.48,389.37 580.08,388.59 582.16,389.44 582.73,391.91 581.79,396.01"/>
    </edge>
    <edge id=":1363148213_5" function="internal">
        <lane id=":1363148213_5_0" index="0" allow="pedestrian bus bicycle" speed="3.65" length="4.67" shape="576.48,389.37 577.88,389.71 578.53,390.33 578.43,391.21 577.57,392.38"/>
    </edge>
    <edge id=":1363148213_6" function="internal">
        <lane id=":1363148213_6_0" index="0" allow="pedestrian bicycle" speed="4.24" length="5.51" width="2.00" shape="579.96,395.19 580.35,393.43 580.09,392.38 579.16,392.03 577.57,392.38"/>
    </edge>
    <edge id=":1363148213_7" function="internal">
        <lane id=":1363148213_7_0" index="0" allow="pedestrian bicycle" speed="5.56" length="10.00" width="2.00" shape="579.96,395.19 581.30,391.60 582.50,388.95 583.58,387.23 584.52,386.45"/>
    </edge>
    <edge id=":1363148213_8" function="internal">
        <lane id=":1363148213_8_0" index="0" allow="pedestrian bicycle" speed="2.89" length="2.93" width="2.00" shape="579.96,395.19 580.72,394.71 581.28,394.68 581.64,395.11 581.79,396.01"/>
    </edge>
    <edge id=":1363148220_0" function="internal">
        <lane id=":1363148220_0_0" index="0" allow="pedestrian bus bicycle" speed="5.56" length="5.45" shape="912.20,427.56 910.59,427.52 909.48,427.58 908.38,427.75 906.79,428.02"/>
    </edge>
    <edge id=":1363148220_1" function="internal">
        <lane id=":1363148220_1_0" index="0" allow="pedestrian bus bicycle" speed="3.65" length="4.67" shape="912.20,427.56 911.04,426.70 910.68,425.88 911.12,425.10 912.35,424.36"/>
    </edge>
    <edge id=":1363148220_2" function="internal">
        <lane id=":1363148220_2_0" index="0" allow="pedestrian bicycle" speed="5.56" length="3.49" shape="908.89,423.95 909.91,424.15 910.61,424.25 911.32,424.31 912.35,424.36"/>
    </edge>
    <edge id=":1363148220_3" function="internal">
        <lane id=":1363148220_3_0" index="0" allow="pedestrian bicycle" speed="4.35" length="6.69" shape="908.89,423.95 909.89,425.76 909.87,427.04 908.84,427.79 906.79,428.02"/>
    </edge>
    <edge id=":1381851196_0" function="internal">
        <lane id=":1381851196_0_0" index="0" allow="pedestrian bicycle" speed="2.89" length="2.92" width="2.00" shape="175.86,1030.75 174.99,1030.52 174.59,1030.12 174.67,1029.57 175.22,1028.85"/>
    </edge>
    <edge id=":1427486641_0" function="internal">
        <lane id=":1427486641_0_0" index="0" allow="pedestrian delivery bicycle" speed="3.65" length="4.67" shape="1170.97,969.79 1172.14,970.63 1172.52,971.44 1172.09,972.23 1170.87,972.99"/>
    </edge>
    <edge id=":1427486645_0" function="internal">
        <lane id=":1427486645_0_0" index="0" allow="pedestrian motorcycle moped bicycle" speed="5.56" length="9.12" shape="1227.34,1035.09 1226.13,1032.74 1224.57,1031.63 1222.67,1031.78 1220.42,1033.17"/>
    </edge>
    <edge id=":1427486645_1" function="internal">
        <lane id=":1427486645_1_0" index="0" allow="pedestrian motorcycle moped bicycle" speed="5.56" length="14.77" shape="1227.34,1035.09 1226.22,1030.86 1225.97,1027.08 1226.59,1023.76 1228.08,1020.90"/>
    </edge>
    <edge id=":1427486645_2" function="internal">
        <lane id=":1427486645_2_0" index="0" allow="pedestrian motorcycle moped bicycle" speed="3.65" length="4.67" shape="1227.34,1035.09 1227.70,1033.70 1228.32,1033.06 1229.21,1033.17 1230.36,1034.05"/>
    </edge>
    <edge id=":1427486645_3" function="internal">
        <lane id=":1427486645_3_0" index="0" allow="pedestrian motorcycle moped bicycle" speed="5.56" length="11.69" shape="1230.66,1022.78 1229.57,1024.95 1229.16,1027.55 1229.42,1030.58 1230.36,1034.05"/>
    </edge>
    <edge id=":1427486645_4" function="internal">
        <lane id=":1427486645_4_0" index="0" allow="pedestrian motorcycle moped bicycle" speed="5.56" length="14.63" shape="1230.66,1022.78 1228.36,1025.66 1225.87,1028.29 1223.22,1030.77 1220.42,1033.17"/>
    </edge>
    <edge id=":1427486645_5" function="internal">
        <lane id=":1427486645_5_0" index="0" allow="pedestrian motorcycle moped bicycle" speed="3.65" length="4.67" shape="1230.66,1022.78 1229.31,1023.28 1228.43,1023.13 1228.02,1022.34 1228.08,1020.90"/>
    </edge>
    <edge id=":1427486645_6" function="internal">
        <lane id=":1427486645_6_0" index="0" allow="pedestrian motorcycle moped bicycle" speed="5.56" length="13.84" shape="1218.37,1030.71 1221.09,1028.40 1223.56,1026.12 1225.86,1023.68 1228.08,1020.90"/>
    </edge>
    <edge id=":1427486645_7" function="internal">
        <lane id=":1427486645_7_0" index="0" allow="pedestrian motorcycle moped bicycle" speed="5.56" length="15.79" shape="1218.37,1030.71 1222.27,1028.30 1225.57,1028.05 1228.27,1029.96 1230.36,1034.05"/>
    </edge>
    <edge id=":1427486645_8" function="internal">
        <lane id=":1427486645_8_0" index="0" allow="pedestrian motorcycle moped bicycle" speed="3.65" length="4.67" shape="1218.37,1030.71 1219.80,1030.56 1220.62,1030.92 1220.83,1031.79 1220.42,1033.17"/>
    </edge>
    <edge id=":1427486646_0" function="internal">
        <lane id=":1427486646_0_0" index="0" allow="pedestrian motorcycle moped bicycle" speed="3.65" length="4.67" shape="1176.18,1039.98 1175.01,1039.14 1174.63,1038.32 1175.06,1037.54 1176.28,1036.78"/>
    </edge>
    <edge id=":1433706127_0" function="internal">
        <lane id=":1433706127_0_0" index="0" allow="pedestrian bicycle" speed="3.05" length="3.44" width="2.00" shape="472.37,42.44 472.26,43.49 471.87,44.03 471.21,44.04 470.28,43.53"/>
    </edge>
    <edge id=":1592137593_0" function="internal">
        <lane id=":1592137593_0_0" index="0" disallow="tram rail_urban rail rail_electric rail_fast ship container cable_car subway aircraft wheelchair scooter drone" speed="13.89" length="5.17" shape="362.21,21.23 360.23,26.01"/>
    </edge>
    <edge id=":1592137593_1" function="internal">
        <lane id=":1592137593_1_0" index="0" disallow="tram rail_urban rail rail_electric rail_fast ship container cable_car subway aircraft wheelchair scooter drone" speed="13.89" length="5.13" shape="357.27,24.79 359.22,20.04"/>
    </edge>
    <edge id=":1592137601_0" function="internal">
        <lane id=":1592137601_0_0" index="0" allow="pedestrian delivery bicycle" speed="5.56" length="7.71" shape="592.58,77.68 591.81,76.65 590.43,75.79 588.42,75.10 585.80,74.59"/>
    </edge>
    <edge id=":1592137601_1" function="internal">
        <lane id=":1592137601_1_0" index="0" allow="pedestrian delivery bicycle" speed="5.56" length="10.24" shape="592.58,77.68 588.96,68.10"/>
    </edge>
    <edge id=":1592137601_2" function="internal">
        <lane id=":1592137601_2_0" index="0" allow="pedestrian delivery bicycle" speed="3.65" length="4.67" shape="592.58,77.68 592.87,76.26 593.46,75.59 594.35,75.66 595.54,76.47"/>
    </edge>
    <edge id=":1592137601_3" function="internal">
        <lane id=":1592137601_3_0" index="0" allow="pedestrian delivery bicycle" speed="5.56" length="10.11" shape="591.97,67.01 595.54,76.47"/>
    </edge>
    <edge id=":1592137601_4" function="internal">
        <lane id=":1592137601_4_0" index="0" allow="pedestrian delivery bicycle" speed="5.56" length="13.14" shape="591.97,67.01 592.80,70.84 592.05,73.38 589.72,74.63 585.80,74.59"/>
    </edge>
    <edge id=":1592137601_5" function="internal">
        <lane id=":1592137601_5_0" index="0" allow="pedestrian delivery bicycle" speed="3.65" length="4.67" shape="591.97,67.01 591.63,68.41 591.01,69.06 590.13,68.95 588.96,68.10"/>
    </edge>
    <edge id=":1592137601_6" function="internal">
        <lane id=":1592137601_6_0" index="0" allow="pedestrian delivery bicycle" speed="4.69" length="5.76" shape="586.26,71.42 587.97,71.44 589.00,70.89 589.33,69.78 588.96,68.10"/>
    </edge>
    <edge id=":1592137601_7" function="internal">
        <lane id=":1592137601_7_0" index="0" allow="pedestrian delivery bicycle" speed="5.56" length="11.01" shape="586.26,71.42 589.72,72.16 592.42,73.24 594.36,74.68 595.54,76.47"/>
    </edge>
    <edge id=":1592137601_8" function="internal">
        <lane id=":1592137601_8_0" index="0" allow="pedestrian delivery bicycle" speed="3.65" length="4.67" shape="586.26,71.42 587.33,72.39 587.61,73.23 587.10,73.97 585.80,74.59"/>
    </edge>
    <edge id=":1592137602_0" function="internal">
        <lane id=":1592137602_0_0" index="0" allow="pedestrian delivery bicycle" speed="5.56" length="5.83" shape="378.62,83.74 377.73,85.22 377.16,86.26 376.68,87.35 376.07,88.97"/>
    </edge>
    <edge id=":1592137602_1" function="internal">
        <lane id=":1592137602_1_0" index="0" allow="pedestrian delivery bicycle" speed="3.65" length="1.44" shape="378.62,83.74 377.32,84.35"/>
    </edge>
    <edge id=":1592137602_4" function="internal">
        <lane id=":1592137602_4_0" index="0" allow="pedestrian delivery bicycle" speed="3.65" length="3.23" shape="377.32,84.35 376.42,84.28 375.95,83.52 375.88,82.08"/>
    </edge>
    <edge id=":1592137602_2" function="internal">
        <lane id=":1592137602_2_0" index="0" allow="pedestrian delivery bicycle" speed="5.56" length="6.44" shape="373.07,87.85 373.75,86.07 374.27,84.87 374.90,83.72 375.88,82.08"/>
    </edge>
    <edge id=":1592137602_3" function="internal">
        <lane id=":1592137602_3_0" index="0" allow="pedestrian delivery bicycle" speed="3.65" length="1.44" shape="373.07,87.85 374.24,87.01"/>
    </edge>
    <edge id=":1592137602_5" function="internal">
        <lane id=":1592137602_5_0" index="0" allow="pedestrian delivery bicycle" speed="3.65" length="3.23" shape="374.24,87.01 375.13,86.91 375.74,87.56 376.07,88.97"/>
    </edge>
    <edge id=":1592137603_0" function="internal">
        <lane id=":1592137603_0_0" index="0" allow="pedestrian delivery bicycle" speed="5.56" length="12.36" shape="610.44,113.87 609.77,114.37 608.90,116.47 607.84,120.15 606.57,125.41"/>
    </edge>
    <edge id=":1592137603_1" function="internal">
        <lane id=":1592137603_1_0" index="0" allow="pedestrian delivery bicycle" speed="5.56" length="9.12" shape="610.44,113.87 607.99,112.48 606.08,111.01 604.72,109.46 603.90,107.82"/>
    </edge>
    <edge id=":1592137603_2" function="internal">